Localizador/34Bus/ieee34-1_FaultStudy.Txt
FAULT STUDY REPORT

ALL-Node Fault Currents

Bus      Node            Amps   X/R Node            Amps   X/R Node            Amps   X/R ...

"SOURCEBUS" 1            9489   4.0    2            9489   4.0    3            9489   4.0
"800"      1           42625   4.1    2           42625   4.1    3           42625   4.1
"802"      1           15366   1.1    2           15838   1.3    3           14990   1.2
"806"      1           10527   0.9    2           10926   1.1    3           10238   1.0
"808"      1            7083   0.8    2            7391   1.0    3            6879   0.9
"810"      2            2472   0.7
"812"      1            4449   0.8    2            4663   0.9    3            4319   0.9
"814"      1            2259   0.7    2            2376   0.8    3            2192   0.8
"814R"     1            2227   0.7    2            2340   0.9    3            2161   0.8
"850"      1            2139   0.7    2            2248   0.8    3            2078   0.8
"816"      1            2058   0.7    2            2163   0.8    3            2000   0.8
"818"      1            1488   1.0
"824"      1            1981   0.7    2            2084   0.8    3            1928   0.8
"820"      1            1424   0.9
"822"      1            1364   0.9
"826"      2            1441   1.0
"828"      1            1910   0.7    2            2011   0.8    3            1861   0.8
"830"      1            1844   0.7    2            1942   0.8    3            1798   0.8
"854"      1            1783   0.6    2            1878   0.8    3            1739   0.7
"832"      1            1654   0.6    2            1742   0.8    3            1616   0.7
"858"      1            1604   0.6    2            1689   0.8    3            1568   0.7
"834"      1            1556   0.6    2            1640   0.7    3            1523   0.7
"860"      1            1511   0.6    2            1593   0.7    3            1479   0.7
"842"      1            1511   0.6    2            1593   0.7    3            1479   0.7
"836"      1            1469   0.6    2            1549   0.7    3            1439   0.7
"840"      1            1428   0.6    2            1507   0.7    3            1400   0.7
"862"      1            1428   0.6    2            1507   0.7    3            1400   0.7
"844"      1            1469   0.6    2            1549   0.7    3            1439   0.7
"846"      1            1428   0.6    2            1507   0.7    3            1400   0.7
"848"      1            1390   0.6    2            1467   0.7    3            1363   0.7
"852R"     1            1707   0.7    2            1797   0.8    3            1667   0.7
"856"      2            1307   0.9
"852"      1            1725   0.6    2            1817   0.8    3            1684   0.7
"864"      1            1181   0.9
"838"      2            1074   0.9
"888"      1            1395   1.7    2            1411   1.7    3            1400   1.7
"890"      1            1261   1.5    2            1279   1.6    3            1260   1.5


ONE-Node to ground Faults

                                      pu Node Voltages (L-N Volts if no base)
Bus         Node  Amps         Node 1     Node 2     Node 3    ...

"SOURCEBUS"    1        11069          0.000      1.591      1.656
"SOURCEBUS"    2        11069          1.656      0.000      1.591
"SOURCEBUS"    3        11070          1.591      1.656      0.000
"800"          1        63074          0.000      0.914      0.905
"800"          2        63071          0.905      0.000      0.914
"800"          3        63077          0.914      0.905      0.000
"802"          1        13306          0.000      1.177      1.108
"802"          2        13257          1.106      0.000      1.125
"802"          3        13277          1.142      1.106      0.000
"806"          1         8616          0.000      1.232      1.117
"806"          2         8588          1.116      0.000      1.175
"806"          3         8599          1.193      1.115      0.000
"808"          1         5596          0.000      1.268      1.121
"808"          2         5581          1.120      0.000      1.207
"808"          3         5586          1.226      1.119      0.000
"810"          2         2472          0.000
"812"          1         3427          0.000      1.292      1.123
"812"          2         3422          1.121      0.000      1.229
"812"          3         3423          1.247      1.121      0.000
"814"          1         1702          0.000      1.304      1.121
"814"          2         1704          1.116      0.000      1.241
"814"          3         1702          1.255      1.119      0.000
"814R"         1         1683          0.000      1.300      1.120
"814R"         2         1684          1.116      0.000      1.238
"814R"         3         1682          1.252      1.119      0.000
"850"          1         1618          0.000      1.300      1.118
"850"          2         1621          1.113      0.000      1.239
"850"          3         1618          1.251      1.117      0.000
"816"          1         1559          0.000      1.300      1.116
"816"          2         1562          1.110      0.000      1.239
"816"          3         1559          1.251      1.115      0.000
"818"          1         1488          0.000
"824"          1         1503          0.000      1.299      1.114
"824"          2         1507          1.108      0.000      1.239
"824"          3         1504          1.251      1.112      0.000
"820"          1         1424          0.000
"822"          1         1364          0.000
"826"          2         1441          0.000
"828"          1         1451          0.000      1.299      1.112
"828"          2         1455          1.106      0.000      1.239
"828"          3         1452          1.251      1.111      0.000
"830"          1         1402          0.000      1.298      1.110
"830"          2         1407          1.104      0.000      1.239
"830"          3         1404          1.251      1.109      0.000
"854"          1         1357          0.000      1.298      1.108
"854"          2         1362          1.102      0.000      1.239
"854"          3         1359          1.251      1.107      0.000
"832"          1         1263          0.000      1.294      1.105
"832"          2         1269          1.098      0.000      1.237
"832"          3         1266          1.248      1.104      0.000
"858"          1         1226          0.000      1.294      1.104
"858"          2         1232          1.097      0.000      1.237
"858"          3         1229          1.248      1.103      0.000
"834"          1         1191          0.000      1.294      1.102
"834"          2         1197          1.095      0.000      1.237
"834"          3         1194          1.248      1.102      0.000
"860"          1         1158          0.000      1.294      1.101
"860"          2         1164          1.094      0.000      1.237
"860"          3         1161          1.249      1.100      0.000
"842"          1         1157          0.000      1.294      1.101
"842"          2         1164          1.094      0.000      1.237
"842"          3         1161          1.249      1.100      0.000
"836"          1         1126          0.000      1.294      1.100
"836"          2         1132          1.093      0.000      1.237
"836"          3         1130          1.249      1.099      0.000
"840"          1         1096          0.000      1.294      1.099
"840"          2         1103          1.092      0.000      1.238
"840"          3         1100          1.249      1.098      0.000
"862"          1         1096          0.000      1.294      1.099
"862"          2         1103          1.092      0.000      1.238
"862"          3         1100          1.249      1.098      0.000
"844"          1         1126          0.000      1.294      1.100
"844"          2         1132          1.093      0.000      1.237
"844"          3         1130          1.249      1.099      0.000
"846"          1         1096          0.000      1.294      1.099
"846"          2         1102          1.092      0.000      1.238
"846"          3         1100          1.249      1.099      0.000
"848"          1         1067          0.000      1.295      1.098
"848"          2         1074          1.091      0.000      1.238
"848"          3         1071          1.250      1.098      0.000
"852R"         1         1302          0.000      1.295      1.107
"852R"         2         1308          1.100      0.000      1.237
"852R"         3         1305          1.248      1.106      0.000
"856"          2         1307          0.000
"852"          1         1314          0.000      1.298      1.107
"852"          2         1319          1.100      0.000      1.239
"852"          3         1317          1.251      1.106      0.000
"864"          1         1181          0.000
"838"          2         1074          0.000
"888"          1         1309          0.000      1.046      1.020
"888"          2         1320          1.011      0.000      1.038
"888"          3         1320          1.032      1.019      0.000
"890"          1         1139          0.000      1.069      1.027
"890"          2         1149          1.019      0.000      1.054
"890"          3         1148          1.050      1.026      0.000

Adjacent Node-Node Faults

                                        pu Node Voltages (L-N Volts if no base)
Bus          Node-Node      Amps        Node 1     Node 2     Node 3    ...

"SOURCEBUS"   1   2        8217         0.875      0.875      1.749
"SOURCEBUS"   1   3        8218         0.875      1.749      0.875
"SOURCEBUS"   2   3        8218         1.749      0.875      0.875
"800"         1   2       36912         0.525      0.525      1.050
"800"         1   3       36915         0.525      1.050      0.525
"800"         2   3       36913         1.050      0.525      0.525
"802"         1   2       13663         0.518      0.518      1.038
"802"         1   3       13294         0.527      1.082      0.527
"802"         2   3       13027         1.026      0.526      0.526
"806"         1   2        9390         0.516      0.516      1.034
"806"         1   3        9119         0.527      1.089      0.527
"806"         2   3        8923         1.019      0.526      0.526
"808"         1   2        6333         0.515      0.515      1.030
"808"         1   3        6145         0.527      1.094      0.527
"808"         2   3        6009         1.014      0.526      0.526
"812"         1   2        3985         0.512      0.512      1.026
"812"         1   3        3865         0.526      1.095      0.526
"812"         2   3        3779         1.007      0.525      0.525
"814"         1   2        2026         0.507      0.507      1.019
"814"         1   3        1964         0.523      1.092      0.523
"814"         2   3        1921         0.995      0.522      0.522
"814R"        1   2        1997         0.507      0.507      1.019
"814R"        1   3        1936         0.523      1.091      0.523
"814R"        2   3        1894         0.996      0.522      0.522
"850"         1   2        1917         0.506      0.506      1.019
"850"         1   3        1860         0.522      1.090      0.522
"850"         2   3        1820         0.995      0.522      0.522
"816"         1   2        1844         0.506      0.506      1.018
"816"         1   3        1790         0.522      1.089      0.522
"816"         2   3        1752         0.994      0.521      0.521
"824"         1   2        1776         0.506      0.506      1.018
"824"         1   3        1725         0.522      1.088      0.522
"824"         2   3        1689         0.993      0.521      0.521
"828"         1   2        1713         0.506      0.506      1.017
"828"         1   3        1664         0.521      1.088      0.521
"828"         2   3        1630         0.993      0.521      0.521
"830"         1   2        1654         0.505      0.505      1.016
"830"         1   3        1607         0.521      1.087      0.521
"830"         2   3        1576         0.992      0.520      0.520
"854"         1   2        1598         0.505      0.505      1.016
"854"         1   3        1554         0.521      1.086      0.521
"854"         2   3        1524         0.992      0.520      0.520
"832"         1   2        1482         0.505      0.505      1.015
"832"         1   3        1442         0.520      1.084      0.520
"832"         2   3        1416         0.991      0.519      0.519
"858"         1   2        1437         0.505      0.505      1.014
"858"         1   3        1399         0.520      1.084      0.520
"858"         2   3        1374         0.991      0.519      0.519
"834"         1   2        1395         0.505      0.505      1.014
"834"         1   3        1358         0.520      1.083      0.520
"834"         2   3        1334         0.991      0.519      0.519
"860"         1   2        1355         0.505      0.505      1.014
"860"         1   3        1319         0.520      1.083      0.520
"860"         2   3        1296         0.990      0.519      0.519
"842"         1   2        1355         0.505      0.505      1.014
"842"         1   3        1319         0.520      1.083      0.520
"842"         2   3        1296         0.990      0.519      0.519
"836"         1   2        1317         0.505      0.505      1.014
"836"         1   3        1282         0.520      1.083      0.520
"836"         2   3        1260         0.990      0.519      0.519
"840"         1   2        1281         0.505      0.505      1.014
"840"         1   3        1248         0.519      1.083      0.519
"840"         2   3        1226         0.990      0.519      0.519
"862"         1   2        1281         0.505      0.505      1.014
"862"         1   3        1248         0.519      1.083      0.519
"862"         2   3        1226         0.990      0.519      0.519
"844"         1   2        1317         0.505      0.505      1.014
"844"         1   3        1283         0.519      1.083      0.519
"844"         2   3        1260         0.990      0.519      0.519
"846"         1   2        1281         0.505      0.505      1.014
"846"         1   3        1248         0.519      1.083      0.519
"846"         2   3        1226         0.990      0.519      0.519
"848"         1   2        1246         0.505      0.505      1.014
"848"         1   3        1214         0.519      1.083      0.519
"848"         2   3        1194         0.990      0.519      0.519
"852R"        1   2        1530         0.505      0.505      1.015
"852R"        1   3        1488         0.520      1.085      0.520
"852R"        2   3        1460         0.992      0.520      0.520
"852"         1   2        1547         0.505      0.505      1.015
"852"         1   3        1504         0.520      1.086      0.520
"852"         2   3        1476         0.991      0.520      0.520
"888"         1   2        1220         0.495      0.495      0.998
"888"         1   3        1211         0.498      1.003      0.498
"888"         2   3        1211         0.987      0.501      0.501
"890"         1   2        1106         0.491      0.491      0.991
"890"         1   3        1093         0.495      1.001      0.495
"890"         2   3        1091         0.979      0.499      0.499
